Pcp_File_Version=4
*** BLOCK I: ATMOSPHERIC INFORMATION  **********************************
   MaxAL                    (MaxAL = number of atmospheric data-records)
    744
 DailyVar  SinusVar  lLay  lBCCycles lInterc lDummy  lDummy  lDummy  lDummy  lDummy
       f       f       f       f       f       f       f       f       f       f
 hCritS                 (max. allowed pressure head at the soil surface)
      0
       tAtm        Prec       rSoil       rRoot      hCritA          rB          hB          ht    RootDepth
          1           0           0           0      -15000           0      78.275           0 
          2           0           0           0      -15000           0          78           0 
          3           0           0           0      -15000           0       77.65           0 
          4           0           0           0      -15000           0     77.7583           0 
          5           0           0           0      -15000           0     77.7833           0 
          6           0           0           0      -15000           0     77.7083           0 
          7           0           0           0      -15000           0     77.8333           0 
          8           0  0.00388446           0      -15000           0     78.2833           0 
          9           0   0.0113887           0      -15000           0     77.4333           0 
         10           0   0.0181167           0      -15000           0     77.2083           0 
         11           0   0.0236102           0      -15000           0     76.3583           0 
         12           0   0.0274946           0      -15000           0     76.2833           0 
         13           0   0.0295054           0      -15000           0     76.1083           0 
         14           0   0.0295054           0      -15000           0     76.0917           0 
         15           0   0.0274946           0      -15000           0     76.1167           0 
         16           0   0.0236102           0      -15000           0     75.9667           0 
         17           0   0.0181167           0      -15000           0     76.1167           0 
         18           0   0.0113887           0      -15000           0     76.4917           0 
         19           0  0.00388446           0      -15000           0     76.2917           0 
         20           0           0           0      -15000           0     76.2667           0 
         21           0           0           0      -15000           0     76.3917           0 
         22           0           0           0      -15000           0     75.9083           0 
         23           0           0           0      -15000           0     75.9583           0 
         24           0           0           0      -15000           0     75.6583           0 
         25           0           0           0      -15000           0     75.9083           0 
         26           0           0           0      -15000           0     75.6333           0 
         27           0           0           0      -15000           0     75.7833           0 
         28           0           0           0      -15000           0     75.5833           0 
         29           0           0           0      -15000           0      75.875           0 
         30           0           0           0      -15000           0       75.55           0 
         31           0           0           0      -15000           0      75.775           0 
         32           0  0.00415705           0      -15000           0     75.9167           0 
         33           0   0.0121878           0      -15000           0     75.4917           0 
         34           0   0.0193881           0      -15000           0     75.0667           0 
         35           0    0.025267           0      -15000           0     74.3667           0 
         36           0   0.0294241           0      -15000           0     74.0667           0 
         37           0   0.0315759           0      -15000           0     73.9667           0 
         38           0   0.0315759           0      -15000           0     73.9667           0 
         39           0   0.0294241           0      -15000           0     74.0417           0 
         40           0    0.025267           0      -15000           0     74.1417           0 
         41           0   0.0193881           0      -15000           0     74.1167           0 
         42           0   0.0121878           0      -15000           0     73.9167           0 
         43           0  0.00415705           0      -15000           0     73.8583           0 
         44           0           0           0      -15000           0     73.8333           0 
         45           0           0           0      -15000           0     73.8333           0 
         46           0           0           0      -15000           0     73.8833           0 
         47           0           0           0      -15000           0     73.8333           0 
         48           0           0           0      -15000           0     73.6333           0 
         49           0           0           0      -15000           0     73.6333           0 
         50           0           0           0      -15000           0     73.5583           0 
         51           0           0           0      -15000           0     73.4833           0 
         52           0           0           0      -15000           0     73.5833           0 
         53           0           0           0      -15000           0     73.3333           0 
         54           0           0           0      -15000           0     73.2417           0 
         55           0           0           0      -15000           0     73.5417           0 
         56           0  0.00473631           0      -15000           0     73.4667           0 
         57           0   0.0138862           0      -15000           0     73.3667           0 
         58           0   0.0220897           0      -15000           0     73.1667           0 
         59           0   0.0287878           0      -15000           0     72.3667           0 
         60           0   0.0335241           0      -15000           0       72.55           0 
         61           0   0.0359759           0      -15000           0     71.8833           0 
         62           0   0.0359759           0      -15000           0     72.3583           0 
         63           0   0.0335241           0      -15000           0     72.4417           0 
         64           0   0.0287878           0      -15000           0        72.7           0 
         65           0   0.0220897           0      -15000           0     72.6083           0 
         66           0   0.0138862           0      -15000           0     72.7167           0 
         67           0  0.00473631           0      -15000           0      72.875           0 
         68           0           0           0      -15000           0     73.4583           0 
         69           0           0           0      -15000           0     73.7833           0 
         70           0           0           0      -15000           0        73.6           0 
         71           0           0           0      -15000           0     73.5583           0 
         72           0           0           0      -15000           0     74.3667           0 
         73           0           0           0      -15000           0       74.45           0 
         74       0.011           0           0      -15000           0     74.9833           0 
         75       0.054           0           0      -15000           0     75.3667           0 
         76           0           0           0      -15000           0      75.225           0 
         77           0           0           0      -15000           0     76.2583           0 
         78       0.044           0           0      -15000           0     76.8333           0 
         79       0.089           0           0      -15000           0     77.1667           0 
         80           0  0.00265779           0      -15000           0     77.3667           0 
         81       0.246  0.00779223           0      -15000           0     77.5667           0 
         82           0   0.0123957           0      -15000           0     77.1167           0 
         83           0   0.0161543           0      -15000           0     77.4917           0 
         84           0   0.0188121           0      -15000           0     77.4333           0 
         85           0   0.0201879           0      -15000           0     76.6833           0 
         86           0   0.0201879           0      -15000           0     75.7833           0 
         87           0   0.0188121           0      -15000           0     75.6333           0 
         88           0   0.0161543           0      -15000           0     75.1583           0 
         89           0   0.0123957           0      -15000           0     75.2083           0 
         90           0  0.00779223           0      -15000           0     74.6583           0 
         91           0  0.00265779           0      -15000           0     74.3833           0 
         92           0           0           0      -15000           0          75           0 
         93           0           0           0      -15000           0      74.375           0 
         94       0.039           0           0      -15000           0      73.875           0 
         95       0.055           0           0      -15000           0      74.475           0 
         96           0           0           0      -15000           0      73.525           0 
         97           0           0           0      -15000           0      73.675           0 
         98           0           0           0      -15000           0        73.6           0 
         99           0           0           0      -15000           0      73.875           0 
        100           0           0           0      -15000           0      73.525           0 
        101           0           0           0      -15000           0      73.725           0 
        102           0           0           0      -15000           0        73.8           0 
        103           0           0           0      -15000           0      73.775           0 
        104           0  0.00313482           0      -15000           0        73.9           0 
        105       0.009  0.00919084           0      -15000           0     74.0167           0 
        106           0   0.0146205           0      -15000           0     73.4583           0 
        107       0.007   0.0190538           0      -15000           0     73.0833           0 
        108       0.014   0.0221887           0      -15000           0        73.1           0 
        109           0   0.0238113           0      -15000           0       72.55           0 
        110           0   0.0238113           0      -15000           0     72.3167           0 
        111           0   0.0221887           0      -15000           0     71.8917           0 
        112           0   0.0190538           0      -15000           0     71.7417           0 
        113           0   0.0146205           0      -15000           0     71.3417           0 
        114           0  0.00919084           0      -15000           0     70.9917           0 
        115       0.182  0.00313482           0      -15000           0     71.0917           0 
        116       0.076           0           0      -15000           0     71.2167           0 
        117           0           0           0      -15000           0     71.2167           0 
        118           0           0           0      -15000           0     71.5167           0 
        119           0           0           0      -15000           0     71.3167           0 
        120       0.008           0           0      -15000           0     71.3417           0 
        121           0           0           0      -15000           0       71.35           0 
        122           0           0           0      -15000           0      71.925           0 
        123           0           0           0      -15000           0       71.65           0 
        124           0           0           0      -15000           0       71.85           0 
        125           0           0           0      -15000           0      71.425           0 
        126           0           0           0      -15000           0      71.475           0 
        127           0           0           0      -15000           0      71.975           0 
        128           0  0.00218075           0      -15000           0     72.1583           0 
        129           0  0.00639363           0      -15000           0     72.2583           0 
        130           0   0.0101708           0      -15000           0     71.3833           0 
        131           0   0.0132548           0      -15000           0     71.7583           0 
        132           0   0.0154356           0      -15000           0     71.4917           0 
        133           0   0.0165644           0      -15000           0     71.5417           0 
        134           0   0.0165644           0      -15000           0        71.5           0 
        135           0   0.0154356           0      -15000           0      71.575           0 
        136           0   0.0132548           0      -15000           0     72.1583           0 
        137           0   0.0101708           0      -15000           0      72.675           0 
        138           0  0.00639363           0      -15000           0      72.725           0 
        139       0.033  0.00218075           0      -15000           0        72.5           0 
        140       0.008           0           0      -15000           0      72.175           0 
        141           0           0           0      -15000           0     71.9667           0 
        142           0           0           0      -15000           0     72.1667           0 
        143           0           0           0      -15000           0     72.0083           0 
        144           0           0           0      -15000           0     71.2333           0 
        145           0           0           0      -15000           0     71.6583           0 
        146           0           0           0      -15000           0     71.2583           0 
        147           0           0           0      -15000           0      71.175           0 
        148           0           0           0      -15000           0      71.075           0 
        149       0.012           0           0      -15000           0       71.15           0 
        150       0.133           0           0      -15000           0      71.175           0 
        151       0.034           0           0      -15000           0     71.4917           0 
        152       0.014  0.00461705           0      -15000           0     71.1083           0 
        153           0   0.0135365           0      -15000           0     70.5333           0 
        154           0   0.0215335           0      -15000           0      70.075           0 
        155           0    0.028063           0      -15000           0     69.8917           0 
        156           0     0.03268           0      -15000           0     69.6917           0 
        157           0     0.03507           0      -15000           0     68.9833           0 
        158           0     0.03507           0      -15000           0     68.5583           0 
        159           0     0.03268           0      -15000           0     68.8833           0 
        160           0    0.028063           0      -15000           0     68.5583           0 
        161           0   0.0215335           0      -15000           0     68.2583           0 
        162           0   0.0135365           0      -15000           0     67.9833           0 
        163           0  0.00461705           0      -15000           0     68.0583           0 
        164           0           0           0      -15000           0     67.8833           0 
        165           0           0           0      -15000           0      68.275           0 
        166           0           0           0      -15000           0      68.175           0 
        167           0           0           0      -15000           0      68.075           0 
        168           0           0           0      -15000           0      68.175           0 
        169           0           0           0      -15000           0     68.2583           0 
        170           0           0           0      -15000           0     68.1833           0 
        171           0           0           0      -15000           0     67.9583           0 
        172           0           0           0      -15000           0     68.0167           0 
        173           0           0           0      -15000           0     68.1917           0 
        174           0           0           0      -15000           0       68.45           0 
        175           0           0           0      -15000           0      68.875           0 
        176           0  0.00233408           0      -15000           0      69.175           0 
        177           0  0.00684318           0      -15000           0      68.925           0 
        178        0.02   0.0108859           0      -15000           0     69.0333           0 
        179       0.057   0.0141868           0      -15000           0     68.6333           0 
        180       0.106   0.0165209           0      -15000           0     68.9667           0 
        181       0.025   0.0177291           0      -15000           0      69.125           0 
        182           0   0.0177291           0      -15000           0        69.5           0 
        183           0   0.0165209           0      -15000           0     69.3833           0 
        184           0   0.0141868           0      -15000           0     69.9333           0 
        185           0   0.0108859           0      -15000           0     70.1833           0 
        186           0  0.00684318           0      -15000           0     69.8917           0 
        187           0  0.00233408           0      -15000           0     70.6917           0 
        188           0           0           0      -15000           0        70.6           0 
        189           0           0           0      -15000           0       70.45           0 
        190           0           0           0      -15000           0       70.55           0 
        191           0           0           0      -15000           0      70.275           0 
        192           0           0           0      -15000           0      70.025           0 
        193           0           0           0      -15000           0      70.225           0 
        194           0           0           0      -15000           0     69.7833           0 
        195           0           0           0      -15000           0     69.9333           0 
        196           0           0           0      -15000           0     69.8917           0 
        197           0           0           0      -15000           0      70.225           0 
        198           0           0           0      -15000           0        70.4           0 
        199           0           0           0      -15000           0     70.0833           0 
        200       0.007  0.00516224           0      -15000           0     70.7833           0 
        201           0   0.0151349           0      -15000           0     70.5833           0 
        202           0   0.0240762           0      -15000           0     70.9667           0 
        203           0   0.0313767           0      -15000           0     70.4417           0 
        204           0   0.0365389           0      -15000           0     70.8917           0 
        205           0   0.0392111           0      -15000           0        70.9           0 
        206           0   0.0392111           0      -15000           0       70.95           0 
        207           0   0.0365389           0      -15000           0     70.7083           0 
        208           0   0.0313767           0      -15000           0     71.0333           0 
        209           0   0.0240762           0      -15000           0     70.8583           0 
        210           0   0.0151349           0      -15000           0     70.7083           0 
        211           0  0.00516224           0      -15000           0     70.7333           0 
        212       0.166           0           0      -15000           0     70.6417           0 
        213           0           0           0      -15000           0     71.3833           0 
        214        0.01           0           0      -15000           0     69.8333           0 
        215           0           0           0      -15000           0     70.0333           0 
        216       0.025           0           0      -15000           0     70.2333           0 
        217       0.005           0           0      -15000           0     69.6667           0 
        218           0           0           0      -15000           0     69.5167           0 
        219           0           0           0      -15000           0        69.2           0 
        220           0           0           0      -15000           0     69.6333           0 
        221       0.127           0           0      -15000           0     69.7833           0 
        222        0.13           0           0      -15000           0      70.675           0 
        223           0           0           0      -15000           0     70.0167           0 
        224       0.081  0.00429335           0      -15000           0     70.1167           0 
        225           0   0.0125875           0      -15000           0     69.7333           0 
        226           0   0.0200238           0      -15000           0      68.875           0 
        227           0   0.0260954           0      -15000           0     68.6917           0 
        228           0   0.0303888           0      -15000           0     69.2333           0 
        229           0   0.0326112           0      -15000           0     68.0917           0 
        230           0   0.0326112           0      -15000           0     67.5833           0 
        231           0   0.0303888           0      -15000           0     67.4333           0 
        232           0   0.0260954           0      -15000           0     66.8583           0 
        233           0   0.0200238           0      -15000           0     66.8583           0 
        234           0   0.0125875           0      -15000           0     66.6667           0 
        235           0  0.00429335           0      -15000           0     67.0333           0 
        236           0           0           0      -15000           0     66.9083           0 
        237           0           0           0      -15000           0     66.3083           0 
        238           0           0           0      -15000           0     66.1083           0 
        239           0           0           0      -15000           0       66.55           0 
        240           0           0           0      -15000           0        66.3           0 
        241           0           0           0      -15000           0          66           0 
        242           0           0           0      -15000           0        65.8           0 
        243           0           0           0      -15000           0        65.9           0 
        244           0           0           0      -15000           0      65.725           0 
        245           0           0           0      -15000           0     65.5333           0 
        246           0           0           0      -15000           0      66.125           0 
        247           0           0           0      -15000           0       65.95           0 
        248           0  0.00391853           0      -15000           0      66.025           0 
        249           0   0.0114886           0      -15000           0       65.75           0 
        250           0   0.0182756           0      -15000           0      65.925           0 
        251           0   0.0238173           0      -15000           0       65.65           0 
        252           0   0.0277358           0      -15000           0      66.025           0 
        253           0   0.0297642           0      -15000           0       65.85           0 
        254           0   0.0297642           0      -15000           0       65.65           0 
        255           0   0.0277358           0      -15000           0      65.925           0 
        256           0   0.0238173           0      -15000           0      65.725           0 
        257           0   0.0182756           0      -15000           0       65.45           0 
        258           0   0.0114886           0      -15000           0      66.425           0 
        259       0.077  0.00391853           0      -15000           0       65.65           0 
        260       0.524           0           0      -15000           0     65.8667           0 
        261       0.289           0           0      -15000           0     65.3917           0 
        262           0           0           0      -15000           0     65.2833           0 
        263           0           0           0      -15000           0     65.4333           0 
        264           0           0           0      -15000           0     65.0583           0 
        265           0           0           0      -15000           0     65.5083           0 
        266       0.026           0           0      -15000           0     65.2333           0 
        267       0.003           0           0      -15000           0     65.4333           0 
        268           0           0           0      -15000           0      65.425           0 
        269           0           0           0      -15000           0      65.325           0 
        270           0           0           0      -15000           0        65.5           0 
        271           0           0           0      -15000           0      65.675           0 
        272           0  0.00436149           0      -15000           0      65.475           0 
        273           0   0.0127872           0      -15000           0       65.45           0 
        274           0   0.0203416           0      -15000           0      65.075           0 
        275           0   0.0265097           0      -15000           0      65.075           0 
        276           0   0.0308712           0      -15000           0          65           0 
        277           0   0.0331288           0      -15000           0     64.9333           0 
        278           0   0.0331288           0      -15000           0     65.4083           0 
        279       0.042   0.0308712           0      -15000           0     65.0833           0 
        280           0   0.0265097           0      -15000           0     65.7583           0 
        281           0   0.0203416           0      -15000           0     65.7833           0 
        282           0   0.0127872           0      -15000           0     65.5333           0 
        283           0  0.00436149           0      -15000           0     65.8167           0 
        284           0           0           0      -15000           0     66.4083           0 
        285           0           0           0      -15000           0     66.2083           0 
        286           0           0           0      -15000           0     65.9083           0 
        287           0           0           0      -15000           0     65.7083           0 
        288           0           0           0      -15000           0     65.6167           0 
        289           0           0           0      -15000           0     65.9167           0 
        290           0           0           0      -15000           0     65.6917           0 
        291           0           0           0      -15000           0     65.9917           0 
        292           0           0           0      -15000           0       65.65           0 
        293           0           0           0      -15000           0       66.05           0 
        294           0           0           0      -15000           0        66.2           0 
        295           0           0           0      -15000           0      66.525           0 
        296           0  0.00206149           0      -15000           0      66.725           0 
        297           0  0.00604398           0      -15000           0     66.3583           0 
        298           0  0.00961458           0      -15000           0       66.85           0 
        299           0     0.01253           0      -15000           0     66.6583           0 
        300           0   0.0145914           0      -15000           0     66.7583           0 
        301           0   0.0156585           0      -15000           0     66.7833           0 
        302           0   0.0156585           0      -15000           0     66.8833           0 
        303           0   0.0145914           0      -15000           0     67.0083           0 